OPT_V9/Results/My_campus_w_initial_sub_3_active_27_03_13_05/powerflow_results_t2.txt
Pandapower Network Debug Info
==================================================

BUS:
       vm_pu  va_degree      p_mw    q_mvar
0   0.953222  -1.922690  0.090936  0.002210
1   0.978939  -2.578694  0.038467 -0.021243
2   0.967992   1.087546 -0.003072  0.026156
3   1.023494  -0.738723 -0.000523 -0.041833
4   0.959661  -4.978060  0.049918 -0.004908
5   1.064032  -5.254150 -0.001239 -0.116358
6   1.026958  -4.393922  0.030038 -0.050073
7   0.970488   0.810284  0.001673  0.035850
8   0.984032   0.907552 -0.000281  0.011160
9   0.999241   0.009765  0.027853  0.018257
10  0.999237   0.008696  0.036433 -0.000003
11  0.998286   0.035314  0.005680  1.009966
12  0.993360   0.159754  0.002463  1.006687
13  0.993017   0.174591 -0.010769  1.011062
14  0.993189   0.163943  0.007639  1.012019
15  0.999257   0.010366  0.000000  0.000000
16  0.999256   0.010350  0.000000  0.000000
17  0.999997   0.000610  0.000000  0.000000
18  0.999997   0.000611  0.000000  0.000000
19  0.993903   0.145609  0.000000  0.000000
20  0.993902   0.145548  0.000000  0.000000
21  0.999997   0.000668  0.000000  0.000000
22  0.999997   0.000669  0.000000  0.000000
23  1.000000   0.000000 -0.307886 -3.952592
24  0.999999   0.000566  0.000000  0.000000
--------------------------------------------------

LINE:
    p_from_mw  q_from_mvar   p_to_mw  q_to_mvar         pl_mw       ql_mvar  i_from_ka   i_to_ka      i_ka  vm_from_pu  va_from_degree  vm_to_pu  va_to_degree  loading_percent
0    0.203507     1.002763 -0.203185  -1.002054  3.223678e-04  7.091347e-04   0.039383  0.039383  0.039383    0.999999        0.000566  0.999257      0.010366         7.430797
1    0.000010     0.001000 -0.000010  -0.001000  7.925307e-10  1.743385e-09   0.000038  0.000038  0.000038    0.999999        0.000566  0.999997      0.000610         0.007262
2    0.104310     2.943829 -0.096267  -2.926136  8.043040e-03  1.769283e-02   0.113379  0.113379  0.113379    0.999999        0.000566  0.993903      0.145609        21.392309
3    0.000010     0.001000 -0.000010  -0.001000  1.814969e-09  2.656053e-09   0.000038  0.000038  0.000038    0.999999        0.000566  0.999997      0.000668         0.011321
4    0.027854     0.018258 -0.027853  -0.018257  2.704011e-07  5.948199e-07   0.001283  0.001283  0.001283    0.999257        0.010366  0.999241      0.009765         0.242044
5    0.036434    -0.000002 -0.036433   0.000003  7.258417e-07  1.062207e-06   0.001403  0.001403  0.001403    0.999257        0.010366  0.999237      0.008696         0.412757
6    0.006126     1.010947 -0.005680  -1.009966  4.457158e-04  9.804718e-04   0.038941  0.038941  0.038941    0.999257        0.010366  0.998286      0.035314         7.347356
7    0.002713     1.007237 -0.002463  -1.006687  2.500020e-04  5.499467e-04   0.039007  0.039007  0.039007    0.993903        0.145609  0.993360      0.159754         7.359720
8   -0.010267     1.011970  0.010769  -1.011062  5.022682e-04  9.077691e-04   0.039192  0.039192  0.039192    0.993903        0.145609  0.993017      0.174591         8.519932
9    0.007968     1.012744 -0.007639  -1.012019  3.295552e-04  7.249453e-04   0.039221  0.039221  0.039221    0.993903        0.145609  0.993189      0.163943         7.400165
10   0.095195     0.005531 -0.090936  -0.002210  4.259209e-03  3.320975e-03   0.137737  0.137737  0.137737    0.999256        0.010350  0.953222     -1.922690        59.885653
11   0.040205    -0.019888 -0.038467   0.021243  1.737753e-03  1.354954e-03   0.064790  0.064790  0.064790    0.999256        0.010350  0.978939     -2.578694        28.169723
12  -0.002663     0.027056  0.003072  -0.026156  4.089604e-04  8.996184e-04   0.039269  0.039269  0.039269    0.999256        0.010350  0.967992      1.087546         7.409318
13   0.000024    -0.040846  0.000523   0.041833  5.463753e-04  9.874856e-04   0.059000  0.059000  0.059000    0.999256        0.010350  1.023494     -0.738723        12.826058
14   0.051947    -0.000446 -0.049918   0.004908  2.028489e-03  4.462208e-03   0.075442  0.075442  0.075442    0.993902        0.145548  0.959661     -4.978060        14.234297
15   0.009076    -0.108315  0.001239   0.116358  1.031473e-02  8.042568e-03   0.157850  0.157850  0.157850    0.993902        0.145548  1.064032     -5.254150        68.630571
16   0.032815    -0.046008 -0.030038   0.050073  2.777472e-03  4.064593e-03   0.082068  0.082068  0.082068    0.993902        0.145548  1.026958     -4.393922        24.137783
17   0.002139     0.036693 -0.001673  -0.035850  4.662028e-04  8.425867e-04   0.053377  0.053377  0.053377    0.993902        0.145548  0.970488      0.810284        11.603717
18  -0.000134     0.011275  0.000281  -0.011160  1.471153e-04  1.147082e-04   0.016374  0.016374  0.016374    0.993902        0.145548  0.984032      0.907552         7.119338
--------------------------------------------------

TRAFO:
    p_hv_mw  q_hv_mvar       p_lv_mw     q_lv_mvar     pl_mw   ql_mvar   i_hv_ka       i_lv_ka  vm_hv_pu  va_hv_degree  vm_lv_pu  va_lv_degree  loading_percent
0  0.132771  -0.027148 -1.327613e-01  2.814672e-02  0.000010  0.000998  0.005220  1.960295e-01  0.999257      0.010366  0.999256      0.010350         1.358132
1  0.000010   0.001000 -1.455188e-11 -3.771168e-16  0.000010  0.001000  0.000038  2.100388e-11  0.999997      0.000610  0.999997      0.000611         0.010000
2  0.095854  -0.105814 -9.584363e-02  1.068021e-01  0.000010  0.000988  0.005529  2.083974e-01  0.993903      0.145609  0.993902      0.145548         1.443820
3  0.000010   0.001000  2.591210e-21 -2.220438e-16  0.000010  0.001000  0.000038  3.204938e-16  0.999997      0.000668  0.999997      0.000669         0.010000
4  0.307886   3.952592 -3.078372e-01 -3.948592e+00  0.000049  0.004000  0.032699  1.524427e-01  1.000000      0.000000  0.999999      0.000566         9.911414
--------------------------------------------------
